Version 4
SHEET 1 880 680
SYMBOL _PERSONAL\\comparator\\LM393 176 128 R0
SYMATTR InstName U1
