Version 4
SHEET 1 992 680
WIRE -80 128 -144 128
WIRE 128 128 64 128
WIRE 304 128 272 128
WIRE -272 144 -496 144
WIRE -80 144 -80 128
WIRE -64 144 -80 144
WIRE 128 144 128 128
WIRE 144 144 128 144
WIRE -112 160 -144 160
WIRE 112 160 64 160
WIRE 336 160 272 160
WIRE 464 160 336 160
WIRE 528 160 464 160
WIRE -496 208 -496 144
WIRE -112 224 -112 160
WIRE 112 224 112 160
WIRE 112 224 -112 224
WIRE 336 224 336 160
WIRE 336 224 112 224
WIRE 304 256 304 128
WIRE 304 256 -304 256
WIRE -80 304 -144 304
WIRE 112 304 80 304
WIRE 432 304 272 304
WIRE -304 320 -304 256
WIRE -272 320 -304 320
WIRE -80 320 -80 304
WIRE -48 320 -80 320
WIRE 112 320 112 304
WIRE 144 320 112 320
WIRE -496 336 -496 288
WIRE -112 336 -144 336
WIRE 112 336 80 336
WIRE 336 336 336 224
WIRE 336 336 272 336
WIRE 432 368 432 304
WIRE -112 400 -112 336
WIRE 112 400 112 336
WIRE 112 400 -112 400
WIRE 336 400 336 336
WIRE 336 400 112 400
FLAG 464 160 soc
FLAG 432 368 0
FLAG -496 336 0
SYMBOL AutoGenerated\\1cell_leadacid_sepgnd 208 144 R0
WINDOW 3 0 40 Invisible 2
WINDOW 39 0 64 Invisible 2
SYMATTR InstName U1
SYMBOL AutoGenerated\\1cell_leadacid_sepgnd 0 144 R0
WINDOW 3 0 40 Invisible 2
WINDOW 39 0 64 Invisible 2
SYMATTR InstName U2
SYMBOL AutoGenerated\\1cell_leadacid_sepgnd -208 144 R0
WINDOW 3 0 40 Invisible 2
WINDOW 39 0 64 Invisible 2
SYMATTR InstName U3
SYMBOL AutoGenerated\\1cell_leadacid_sepgnd -208 320 R0
WINDOW 3 0 40 Invisible 2
WINDOW 39 0 64 Invisible 2
SYMATTR InstName U4
SYMBOL AutoGenerated\\1cell_leadacid_sepgnd 16 320 R0
WINDOW 3 0 40 Invisible 2
WINDOW 39 0 64 Invisible 2
SYMATTR InstName U5
SYMBOL AutoGenerated\\1cell_leadacid_sepgnd 208 320 R0
WINDOW 3 0 40 Invisible 2
WINDOW 39 0 64 Invisible 2
SYMATTR InstName U6
SYMBOL current -496 208 R0
WINDOW 123 0 0 Left 0
WINDOW 39 0 0 Left 0
SYMATTR InstName I1
SYMATTR Value PWL(0 1 10m 1 11m -1 20m -1)
TEXT -416 0 Left 2 !.tran 0 25m
TEXT -240 0 Left 2 !.ic V(soc)=100
