Version 4
SHEET 1 1100 680
WIRE 368 48 272 48
WIRE 144 64 -80 64
WIRE 496 80 272 80
WIRE 544 80 496 80
WIRE -80 208 -80 64
WIRE -80 352 -80 288
WIRE 368 352 368 48
FLAG -80 352 0
FLAG 368 352 0
FLAG 496 80 soc
SYMBOL AutoGenerated\\ncell_leadacid_sepgnd 208 64 R0
WINDOW 39 0 64 Invisible 2
SYMATTR InstName U1
SYMATTR SpiceLine a=1.33e-01 b=8.79e-01 c=8.99e-07 d=8.95e-01 e=-1.02 f=-1.10e-03 g=1.68 capah=2.78u Rsoc=1Meg soc=80 Rdis=6m Rchg=150m vclip=2.38 n=6
SYMBOL current -80 208 R0
WINDOW 123 0 0 Left 0
WINDOW 39 0 0 Left 0
SYMATTR InstName I1
SYMATTR Value PWL(0 1 10m 1 11m -1 20m -1)
TEXT -128 -64 Left 2 !.ic V(soc)=110
TEXT -128 -32 Left 2 !.tran 0 30m 1u
